243
 generated by VMD
 Si       -4.334000       -2.503000       -8.103000
 O        -5.739000       -2.015000       -7.474000
 Si       -4.170000       -4.957000       -4.502000
 O        -3.889000       -1.507000       -3.872000
 Si       -6.378000       -1.133000       -6.302000
 O        -5.254000       -0.159000       -5.673000
 O        -4.615000       -3.962000       -3.330000
 O        -3.250000       -2.615000       -6.932000
 O        -2.764000       -4.470000       -5.131000
 Si       -4.334000       -2.503000       -2.701000
 O        -5.739000       -2.015000       -2.072000
 Si       -4.170000       -4.957000        0.900000
 O        -3.889000       -1.507000        1.530000
 Si       -6.378000       -1.133000       -0.900000
 O        -5.254000       -0.159000       -0.271000
 O        -4.615000       -3.962000        2.072000
 O        -3.250000       -2.615000       -1.530000
 O        -2.764000       -4.470000        0.271000
 Si       -4.334000       -2.503000        2.701000
 O        -5.739000       -2.015000        3.330000
 Si       -4.170000       -4.957000        6.302000
 O        -3.889000       -1.507000        6.932000
 Si       -6.378000       -1.133000        4.502000
 O        -5.254000       -0.159000        5.131000
 O        -4.615000       -3.962000        7.474000
 O        -3.250000       -2.615000        3.872000
 O        -2.764000       -4.470000        5.673000
 Si       -4.334000        2.407000       -8.103000
 O        -5.739000        2.895000       -7.474000
 Si       -4.170000       -0.048000       -4.502000
 O        -3.889000        3.402000       -3.872000
 Si       -6.378000        3.776000       -6.302000
 O        -5.254000        4.750000       -5.673000
 O        -4.615000        0.947000       -3.330000
 O        -3.250000        2.295000       -6.932000
 O        -2.764000        0.439000       -5.131000
 Si       -4.334000        2.407000       -2.701000
 O        -5.739000        2.895000       -2.072000
 Si       -4.170000       -0.048000        0.900000
 O        -3.889000        3.402000        1.530000
 Si       -6.378000        3.776000       -0.900000
 O        -5.254000        4.750000       -0.271000
 O        -4.615000        0.947000        2.072000
 O        -3.250000        2.295000       -1.530000
 O        -2.764000        0.439000        0.271000
 Si       -4.334000        2.407000        2.701000
 O        -5.739000        2.895000        3.330000
 Si       -4.170000       -0.048000        6.302000
 O        -3.889000        3.402000        6.932000
 Si       -6.378000        3.776000        4.502000
 O        -5.254000        4.750000        5.131000
 O        -4.615000        0.947000        7.474000
 O        -3.250000        2.295000        3.872000
 O        -2.764000        0.439000        5.673000
 Si       -4.334000        7.317000       -8.103000
 O        -5.739000        7.804000       -7.474000
 Si       -4.170000        4.862000       -4.502000
 O        -3.889000        8.312000       -3.872000
 Si       -6.378000        8.686000       -6.302000
 O        -5.254000        9.660000       -5.673000
 O        -4.615000        5.858000       -3.330000
 O        -3.250000        7.205000       -6.932000
 O        -2.764000        5.349000       -5.131000
 Si       -4.334000        7.317000       -2.701000
 O        -5.739000        7.804000       -2.072000
 Si       -4.170000        4.862000        0.900000
 O        -3.889000        8.312000        1.530000
 Si       -6.378000        8.686000       -0.900000
 O        -5.254000        9.660000       -0.271000
 O        -4.615000        5.858000        2.072000
 O        -3.250000        7.205000       -1.530000
 O        -2.764000        5.349000        0.271000
 Si       -4.334000        7.317000        2.701000
 O        -5.739000        7.804000        3.330000
 Si       -4.170000        4.862000        6.302000
 O        -3.889000        8.312000        6.932000
 Si       -6.378000        8.686000        4.502000
 O        -5.254000        9.660000        5.131000
 O        -4.615000        5.858000        7.474000
 O        -3.250000        7.205000        3.872000
 O        -2.764000        5.349000        5.673000
 Si       -0.082000       -4.957000       -8.103000
 O        -1.487000       -4.470000       -7.474000
 Si        0.082000       -7.412000       -4.502000
 O         0.363000       -3.962000       -3.872000
 Si       -2.126000       -3.589000       -6.302000
 O        -1.002000       -2.615000       -5.673000
 O        -0.363000       -6.417000       -3.330000
 O         1.002000       -5.069000       -6.932000
 O         1.488000       -6.925000       -5.131000
 Si       -0.082000       -4.957000       -2.701000
 O        -1.487000       -4.470000       -2.072000
 Si        0.082000       -7.412000        0.900000
 O         0.363000       -3.962000        1.530000
 Si       -2.126000       -3.589000       -0.900000
 O        -1.002000       -2.615000       -0.271000
 O        -0.363000       -6.417000        2.072000
 O         1.002000       -5.069000       -1.530000
 O         1.488000       -6.925000        0.271000
 Si       -0.082000       -4.957000        2.701000
 O        -1.487000       -4.470000        3.330000
 Si        0.082000       -7.412000        6.302000
 O         0.363000       -3.962000        6.932000
 Si       -2.126000       -3.589000        4.502000
 O        -1.002000       -2.615000        5.131000
 O        -0.363000       -6.417000        7.474000
 O         1.002000       -5.069000        3.872000
 O         1.488000       -6.925000        5.673000
 Si       -0.082000       -0.048000       -8.103000
 O        -1.487000        0.439000       -7.474000
 Si        0.082000       -2.503000       -4.502000
 O         0.363000        0.948000       -3.872000
 Si       -2.126000        1.321000       -6.302000
 O        -1.002000        2.295000       -5.673000
 O        -0.363000       -1.507000       -3.330000
 O         1.002000       -0.160000       -6.932000
 O         1.488000       -2.016000       -5.131000
 Si       -0.082000       -0.048000       -2.701000
 O        -1.487000        0.439000       -2.072000
 Si        0.082000       -2.503000        0.900000
 O         0.363000        0.948000        1.530000
 Si       -2.126000        1.321000       -0.900000
 O        -1.002000        2.295000       -0.271000
 O        -0.363000       -1.507000        2.072000
 O         1.002000       -0.160000       -1.530000
 O         1.488000       -2.016000        0.271000
 Si       -0.082000       -0.048000        2.701000
 O        -1.487000        0.439000        3.330000
 Si        0.082000       -2.503000        6.302000
 O         0.363000        0.948000        6.932000
 Si       -2.126000        1.321000        4.502000
 O        -1.002000        2.295000        5.131000
 O        -0.363000       -1.507000        7.474000
 O         1.002000       -0.160000        3.872000
 O         1.488000       -2.016000        5.673000
 Si       -0.082000        4.862000       -8.103000
 O        -1.487000        5.349000       -7.474000
 Si        0.082000        2.407000       -4.502000
 O         0.363000        5.858000       -3.872000
 Si       -2.126000        6.231000       -6.302000
 O        -1.002000        7.205000       -5.673000
 O        -0.363000        3.403000       -3.330000
 O         1.002000        4.750000       -6.932000
 O         1.488000        2.894000       -5.131000
 Si       -0.082000        4.862000       -2.701000
 O        -1.487000        5.349000       -2.072000
 Si        0.082000        2.407000        0.900000
 O         0.363000        5.858000        1.530000
 Si       -2.126000        6.231000       -0.900000
 O        -1.002000        7.205000       -0.271000
 O        -0.363000        3.403000        2.072000
 O         1.002000        4.750000       -1.530000
 O         1.488000        2.894000        0.271000
 Si       -0.082000        4.862000        2.701000
 O        -1.487000        5.349000        3.330000
 Si        0.082000        2.407000        6.302000
 O         0.363000        5.858000        6.932000
 Si       -2.126000        6.231000        4.502000
 O        -1.002000        7.205000        5.131000
 O        -0.363000        3.403000        7.474000
 O         1.002000        4.750000        3.872000
 O         1.488000        2.894000        5.673000
 Si        4.170000       -7.412000       -8.103000
 O         2.765000       -6.925000       -7.474000
 Si        4.334000       -9.868000       -4.502000
 O         4.615000       -6.417000       -3.872000
 Si        2.126000       -6.043000       -6.302000
 O         3.250000       -5.069000       -5.673000
 O         3.889000       -8.872000       -3.330000
 O         5.254000       -7.524000       -6.932000
 O         5.740000       -9.380000       -5.131000
 Si        4.170000       -7.412000       -2.701000
 O         2.765000       -6.925000       -2.072000
 Si        4.334000       -9.868000        0.900000
 O         4.615000       -6.417000        1.530000
 Si        2.126000       -6.043000       -0.900000
 O         3.250000       -5.069000       -0.271000
 O         3.889000       -8.872000        2.072000
 O         5.254000       -7.524000       -1.530000
 O         5.740000       -9.380000        0.271000
 Si        4.170000       -7.412000        2.701000
 O         2.765000       -6.925000        3.330000
 Si        4.334000       -9.868000        6.302000
 O         4.615000       -6.417000        6.932000
 Si        2.126000       -6.043000        4.502000
 O         3.250000       -5.069000        5.131000
 O         3.889000       -8.872000        7.474000
 O         5.254000       -7.524000        3.872000
 O         5.740000       -9.380000        5.673000
 Si        4.170000       -2.503000       -8.103000
 O         2.765000       -2.016000       -7.474000
 Si        4.334000       -4.958000       -4.502000
 O         4.615000       -1.507000       -3.872000
 Si        2.126000       -1.134000       -6.302000
 O         3.250000       -0.160000       -5.673000
 O         3.889000       -3.962000       -3.330000
 O         5.254000       -2.615000       -6.932000
 O         5.740000       -4.470000       -5.131000
 Si        4.170000       -2.503000       -2.701000
 O         2.765000       -2.016000       -2.072000
 Si        4.334000       -4.958000        0.900000
 O         4.615000       -1.507000        1.530000
 Si        2.126000       -1.134000       -0.900000
 O         3.250000       -0.160000       -0.271000
 O         3.889000       -3.962000        2.072000
 O         5.254000       -2.615000       -1.530000
 O         5.740000       -4.470000        0.271000
 Si        4.170000       -2.503000        2.701000
 O         2.765000       -2.016000        3.330000
 Si        4.334000       -4.958000        6.302000
 O         4.615000       -1.507000        6.932000
 Si        2.126000       -1.134000        4.502000
 O         3.250000       -0.160000        5.131000
 O         3.889000       -3.962000        7.474000
 O         5.254000       -2.615000        3.872000
 O         5.740000       -4.470000        5.673000
 Si        4.170000        2.407000       -8.103000
 O         2.765000        2.894000       -7.474000
 Si        4.334000       -0.048000       -4.502000
 O         4.615000        3.403000       -3.872000
 Si        2.126000        3.776000       -6.302000
 O         3.250000        4.750000       -5.673000
 O         3.889000        0.948000       -3.330000
 O         5.254000        2.295000       -6.932000
 O         5.740000        0.439000       -5.131000
 Si        4.170000        2.407000       -2.701000
 O         2.765000        2.894000       -2.072000
 Si        4.334000       -0.048000        0.900000
 O         4.615000        3.403000        1.530000
 Si        2.126000        3.776000       -0.900000
 O         3.250000        4.750000       -0.271000
 O         3.889000        0.948000        2.072000
 O         5.254000        2.295000       -1.530000
 O         5.740000        0.439000        0.271000
 Si        4.170000        2.407000        2.701000
 O         2.765000        2.894000        3.330000
 Si        4.334000       -0.048000        6.302000
 O         4.615000        3.403000        6.932000
 Si        2.126000        3.776000        4.502000
 O         3.250000        4.750000        5.131000
 O         3.889000        0.948000        7.474000
 O         5.254000        2.295000        3.872000
 O         5.740000        0.439000        5.673000
